@<TRIPOS>MOLECULE
*****
 10 9 0 0 0
SMALL
GASTEIGER

@<TRIPOS>ATOM
      1 NG        -65.6770   70.3120  -14.0990 N.am    1  XLK11      -0.2344
      2 CD        -65.9730   71.5650  -13.7660 C.2     1  XLK11       0.2291
      3 CE        -65.1090   72.6020  -14.4250 C.3     1  XLK11       0.0254
      4 OE        -66.8440   71.8920  -12.9690 O.2     1  XLK11      -0.2743
      5 CZ        -63.9790   72.8600  -13.4620 C.3     1  XLK11      -0.0443
      6 H         -64.9488   70.1481  -14.7410 H       1  XLK11       0.1728
      7 H         -65.6666   73.4992  -14.5954 H       1  XLK11       0.0359
      8 H         -64.7499   72.2710  -15.3770 H       1  XLK11       0.0359
      9 H         -63.0979   73.1416  -13.9998 H       1  XLK11       0.0270
     10 H         -63.7577   71.9793  -12.8961 H       1  XLK11       0.0270
@<TRIPOS>BOND
     1     3     2    1
     2     3     5    1
     3     1     2   am
     4     2     4    2
     5     1     6    1
     6     3     7    1
     7     3     8    1
     8     5     9    1
     9     5    10    1
